xflr5 v6.61

DA62_wing
T1-88.0 m/s-VLM2
QInf  =   87.970000 m/s
Alpha =    0.000000
Beta  =    0.000°
Phi   =    0.000°
Ctrl  =    0.000
CL    =    0.717722
Cy    =   -0.000000
Cd    =    0.023006     ICd   =    0.016080     PCd   =    0.006926
Cl   = -8.79417e-17
Cm   =   -0.529187
ICn   =    0.000000     PCn   =    0.000000 
XCP   =    0.967817     YCP   =    0.000000     ZCP   =    0.263649  
XNP   =    0.000000
Bending = 44805.088991

Main Wing
  y-span        Chord      Ai         Cl        PCd          ICd        CmGeom    CmAirf@chord/4    XTrtop    XTrBot      XCP       BM
   -6.3450     0.9275    -3.598    0.431358    0.006952    0.027131   -0.444593   -0.181059     0.6177    0.0160    0.6714    0.0000
   -6.0669     0.9526    -2.417    0.556949    0.006778    0.023508   -0.543799   -0.210471     0.5739    0.0175    0.6294   89.6956
   -5.7888     0.9777    -1.875    0.622678    0.006769    0.020382   -0.584435   -0.220026     0.5458    0.0180    0.6048   298.3156
   -5.5108     1.0027    -1.561    0.663546    0.006772    0.018086   -0.603851   -0.224111     0.5289    0.0183    0.5891   643.3847
   -5.2327     1.0278    -1.358    0.691178    0.006782    0.016390   -0.613154   -0.226204     0.5147    0.0184    0.5786   1137.5805
   -4.9547     1.0528    -1.218    0.710807    0.006807    0.015117   -0.616881   -0.227424     0.5013    0.0185    0.5712   1790.9922
   -4.6766     1.0779    -1.118    0.725213    0.006830    0.014148   -0.617277   -0.228205     0.4903    0.0185    0.5659   2612.1314
   -4.3985     1.1030    -1.043    0.736038    0.006842    0.013407   -0.615588   -0.228740     0.4824    0.0185    0.5620   3608.4690
   -4.1205     1.1280    -0.988    0.744328    0.006846    0.012840   -0.612564   -0.229129     0.4765    0.0185    0.5591   4786.7531
   -3.8424     1.1531    -0.947    0.750788    0.006846    0.012409   -0.608685   -0.229427     0.4716    0.0185    0.5568   6153.2126
   -3.5643     1.1782    -0.916    0.755923    0.006845    0.012087   -0.604281   -0.229668     0.4668    0.0184    0.5550   7713.6971
   -3.2863     1.2032    -0.893    0.760117    0.006848    0.011852   -0.599585   -0.229873     0.4616    0.0184    0.5536   9473.7786
   -3.0082     1.2283    -0.877    0.763691    0.006855    0.011688   -0.594779   -0.230058     0.4560    0.0183    0.5524   11438.8339
   -2.7302     1.2533    -0.865    0.766939    0.006866    0.011577   -0.590014   -0.230233     0.4501    0.0183    0.5514   13614.1158
   -2.4521     1.2784    -0.854    0.770185    0.006883    0.011483   -0.585449   -0.230408     0.4438    0.0183    0.5503   16004.8259
   -2.1740     1.3035    -0.831    0.773911    0.006903    0.011223   -0.581384   -0.230676     0.4368    0.0182    0.5492   18616.2019
   -1.8938     1.3572    -0.906    0.765457    0.006880    0.012106   -0.554471   -0.230511     0.4338    0.0180    0.5528   21475.6511
   -1.6114     1.4396    -1.083    0.744041    0.006835    0.014072   -0.510050   -0.229840     0.4318    0.0176    0.5606   24596.5044
   -1.3290     1.5220    -1.247    0.724706    0.006816    0.015780   -0.472045   -0.229241     0.4273    0.0173    0.5681   27964.4054
   -1.0466     1.6044    -1.425    0.706334    0.006780    0.017581   -0.438838   -0.228528     0.4269    0.0169    0.5753   31586.6867
   -0.7642     1.6868    -1.676    0.688002    0.006772    0.020136   -0.409139   -0.227433     0.4232    0.0166    0.5824   35470.3040
   -0.4672     1.7280    -1.739    0.683046    0.006779    0.020739   -0.397734   -0.228060     0.4195    0.0164    0.5858   39810.8847
   -0.1557     1.7280    -1.640    0.685674    0.006782    0.019629   -0.398956   -0.228628     0.4186    0.0165    0.5853   44739.3873
    0.1557     1.7280    -1.640    0.685674    0.006782    0.019629   -0.398956   -0.228628     0.4186    0.0165    0.5853   44805.0890
    0.4672     1.7280    -1.739    0.683046    0.006779    0.020739   -0.397734   -0.228060     0.4195    0.0164    0.5858   39876.5864
    0.7642     1.6868    -1.676    0.688002    0.006772    0.020136   -0.409139   -0.227433     0.4232    0.0166    0.5824   35470.0815
    1.0466     1.6044    -1.425    0.706334    0.006780    0.017581   -0.438838   -0.228528     0.4269    0.0169    0.5753   31586.4641
    1.3290     1.5220    -1.247    0.724706    0.006816    0.015780   -0.472045   -0.229241     0.4273    0.0173    0.5681   27964.1829
    1.6114     1.4396    -1.083    0.744041    0.006835    0.014072   -0.510050   -0.229840     0.4318    0.0176    0.5606   24596.2819
    1.8938     1.3572    -0.906    0.765457    0.006880    0.012106   -0.554471   -0.230511     0.4338    0.0180    0.5528   21475.4285
    2.1740     1.3035    -0.831    0.773911    0.006903    0.011223   -0.581384   -0.230676     0.4368    0.0182    0.5492   18616.2019
    2.4521     1.2784    -0.854    0.770185    0.006883    0.011483   -0.585449   -0.230408     0.4438    0.0183    0.5503   16004.8259
    2.7302     1.2533    -0.865    0.766939    0.006866    0.011577   -0.590014   -0.230233     0.4501    0.0183    0.5514   13614.1158
    3.0082     1.2283    -0.877    0.763691    0.006855    0.011688   -0.594779   -0.230058     0.4560    0.0183    0.5524   11438.8339
    3.2863     1.2032    -0.893    0.760117    0.006848    0.011852   -0.599585   -0.229873     0.4616    0.0184    0.5536   9473.7786
    3.5643     1.1782    -0.916    0.755923    0.006845    0.012087   -0.604281   -0.229668     0.4668    0.0184    0.5550   7713.6971
    3.8424     1.1531    -0.947    0.750788    0.006846    0.012409   -0.608685   -0.229427     0.4716    0.0185    0.5568   6153.2126
    4.1205     1.1280    -0.988    0.744328    0.006846    0.012840   -0.612564   -0.229129     0.4765    0.0185    0.5591   4786.7531
    4.3985     1.1030    -1.043    0.736038    0.006842    0.013407   -0.615588   -0.228740     0.4824    0.0185    0.5620   3608.4690
    4.6766     1.0779    -1.118    0.725213    0.006830    0.014148   -0.617277   -0.228205     0.4903    0.0185    0.5659   2612.1314
    4.9547     1.0528    -1.218    0.710807    0.006807    0.015117   -0.616881   -0.227424     0.5013    0.0185    0.5712   1790.9922
    5.2327     1.0278    -1.358    0.691178    0.006782    0.016390   -0.613154   -0.226204     0.5147    0.0184    0.5786   1137.5805
    5.5108     1.0027    -1.561    0.663546    0.006772    0.018086   -0.603851   -0.224111     0.5289    0.0183    0.5891   643.3847
    5.7888     0.9777    -1.875    0.622678    0.006769    0.020382   -0.584435   -0.220026     0.5458    0.0180    0.6048   298.3156
    6.0669     0.9526    -2.417    0.556949    0.006778    0.023508   -0.543799   -0.210471     0.5739    0.0175    0.6294   89.6956
    6.3450     0.9275    -3.598    0.431358    0.006952    0.027131   -0.444593   -0.181059     0.6177    0.0160    0.6714    0.0000


Main Wing Cp Coefficients
 Panel     CtrlPt.x        CtrlPt.y        CtrlPt.z       Nx      Ny       Nz        Area       Cp
Main WingCp Coefficients
Strip 1
   0       1.270e+00      -6.321e+00       5.200e-01           0.391           0.055           0.919       4.075e-03          0.7007
   1       1.250e+00      -6.321e+00       5.273e-01           0.290           0.066           0.955       1.153e-02          0.7577
   2       1.204e+00      -6.320e+00       5.395e-01           0.201           0.074           0.977       1.804e-02          0.7199
   3       1.135e+00      -6.318e+00       5.522e-01           0.141           0.078           0.987       2.351e-02          0.6812
   4       1.048e+00      -6.317e+00       5.633e-01           0.089           0.082           0.993       2.765e-02          0.6504
   5       9.464e-01      -6.317e+00       5.709e-01           0.035           0.084           0.996       3.021e-02          0.5915
   6       8.370e-01      -6.316e+00       5.733e-01          -0.015           0.086           0.996       3.110e-02          0.4917
   7       7.260e-01      -6.317e+00       5.708e-01          -0.047           0.086           0.995       3.023e-02          0.4316
   8       6.198e-01      -6.317e+00       5.652e-01          -0.077           0.086           0.993       2.762e-02          0.3926
   9       5.246e-01      -6.318e+00       5.570e-01          -0.115           0.086           0.990       2.343e-02          0.3325
  10       4.459e-01      -6.319e+00       5.470e-01          -0.171           0.085           0.982       1.793e-02          0.1693
  11       3.884e-01      -6.320e+00       5.362e-01          -0.252           0.082           0.964       1.139e-02         -0.1922
  12       3.553e-01      -6.321e+00       5.265e-01          -0.516           0.068           0.854       4.377e-03         -2.5142
Strip 2
  13       1.289e+00      -6.044e+00       4.949e-01           0.391           0.055           0.919       4.185e-03          0.7366
  14       1.269e+00      -6.044e+00       5.023e-01           0.290           0.066           0.955       1.184e-02          0.8295
  15       1.222e+00      -6.043e+00       5.149e-01           0.201           0.074           0.977       1.852e-02          0.8289
  16       1.152e+00      -6.041e+00       5.279e-01           0.141           0.078           0.987       2.415e-02          0.8186
  17       1.062e+00      -6.040e+00       5.393e-01           0.089           0.082           0.993       2.839e-02          0.8036
  18       9.575e-01      -6.040e+00       5.471e-01           0.035           0.084           0.996       3.103e-02          0.7470
  19       8.452e-01      -6.039e+00       5.496e-01          -0.015           0.086           0.996       3.194e-02          0.6380
  20       7.312e-01      -6.040e+00       5.471e-01          -0.047           0.086           0.995       3.104e-02          0.5615
  21       6.221e-01      -6.040e+00       5.412e-01          -0.077           0.086           0.993       2.836e-02          0.5026
  22       5.243e-01      -6.041e+00       5.329e-01          -0.115           0.086           0.990       2.407e-02          0.4246
  23       4.435e-01      -6.042e+00       5.226e-01          -0.171           0.085           0.982       1.841e-02          0.2551
  24       3.844e-01      -6.043e+00       5.115e-01          -0.252           0.082           0.964       1.170e-02         -0.0852
  25       3.504e-01      -6.044e+00       5.015e-01          -0.516           0.068           0.854       4.496e-03         -2.3146
Strip 3
  26       1.309e+00      -5.767e+00       4.697e-01           0.391           0.055           0.919       4.295e-03          0.7491
  27       1.288e+00      -5.767e+00       4.774e-01           0.290           0.066           0.955       1.215e-02          0.8544
  28       1.240e+00      -5.766e+00       4.903e-01           0.201           0.074           0.977       1.901e-02          0.8676
  29       1.168e+00      -5.764e+00       5.037e-01           0.141           0.078           0.987       2.478e-02          0.8696
  30       1.076e+00      -5.763e+00       5.153e-01           0.089           0.082           0.993       2.914e-02          0.8640
  31       9.686e-01      -5.763e+00       5.233e-01           0.035           0.084           0.996       3.185e-02          0.8128
  32       8.533e-01      -5.762e+00       5.259e-01          -0.015           0.086           0.996       3.278e-02          0.7050
  33       7.363e-01      -5.763e+00       5.233e-01          -0.047           0.086           0.995       3.186e-02          0.6272
  34       6.244e-01      -5.763e+00       5.173e-01          -0.077           0.086           0.993       2.911e-02          0.5669
  35       5.240e-01      -5.764e+00       5.087e-01          -0.115           0.086           0.990       2.470e-02          0.4909
  36       4.411e-01      -5.765e+00       4.982e-01          -0.171           0.085           0.982       1.890e-02          0.3321
  37       3.804e-01      -5.766e+00       4.868e-01          -0.252           0.082           0.964       1.201e-02          0.0247
  38       3.455e-01      -5.767e+00       4.765e-01          -0.516           0.068           0.854       4.614e-03         -2.1008
Strip 4
  39       1.329e+00      -5.491e+00       4.445e-01           0.391           0.055           0.919       4.405e-03          0.7553
  40       1.307e+00      -5.490e+00       4.524e-01           0.290           0.066           0.955       1.246e-02          0.8667
  41       1.258e+00      -5.489e+00       4.656e-01           0.201           0.074           0.977       1.950e-02          0.8867
  42       1.184e+00      -5.487e+00       4.794e-01           0.141           0.078           0.987       2.542e-02          0.8951
  43       1.089e+00      -5.486e+00       4.913e-01           0.089           0.082           0.993       2.989e-02          0.8950
  44       9.798e-01      -5.486e+00       4.995e-01           0.035           0.084           0.996       3.266e-02          0.8479
  45       8.615e-01      -5.485e+00       5.022e-01          -0.015           0.086           0.996       3.362e-02          0.7429
  46       7.415e-01      -5.486e+00       4.995e-01          -0.047           0.086           0.995       3.268e-02          0.6672
  47       6.267e-01      -5.486e+00       4.933e-01          -0.077           0.086           0.993       2.986e-02          0.6094
  48       5.238e-01      -5.487e+00       4.846e-01          -0.115           0.086           0.990       2.533e-02          0.5384
  49       4.387e-01      -5.488e+00       4.737e-01          -0.171           0.085           0.982       1.938e-02          0.3904
  50       3.765e-01      -5.489e+00       4.621e-01          -0.252           0.082           0.964       1.232e-02          0.1106
  51       3.407e-01      -5.490e+00       4.515e-01          -0.516           0.068           0.854       4.732e-03         -1.9320
Strip 5
  52       1.349e+00      -5.214e+00       4.194e-01           0.391           0.055           0.919       4.515e-03          0.7589
  53       1.327e+00      -5.213e+00       4.274e-01           0.290           0.066           0.955       1.277e-02          0.8739
  54       1.276e+00      -5.212e+00       4.410e-01           0.201           0.074           0.977       1.999e-02          0.8979
  55       1.200e+00      -5.210e+00       4.551e-01           0.141           0.078           0.987       2.605e-02          0.9101
  56       1.103e+00      -5.209e+00       4.674e-01           0.089           0.082           0.993       3.063e-02          0.9136
  57       9.909e-01      -5.208e+00       4.757e-01           0.035           0.084           0.996       3.348e-02          0.8695
  58       8.697e-01      -5.208e+00       4.784e-01          -0.015           0.086           0.996       3.446e-02          0.7670
  59       7.466e-01      -5.208e+00       4.757e-01          -0.047           0.086           0.995       3.349e-02          0.6937
  60       6.290e-01      -5.209e+00       4.694e-01          -0.077           0.086           0.993       3.060e-02          0.6389
  61       5.235e-01      -5.210e+00       4.604e-01          -0.115           0.086           0.990       2.597e-02          0.5726
  62       4.363e-01      -5.211e+00       4.493e-01          -0.171           0.085           0.982       1.987e-02          0.4337
  63       3.725e-01      -5.212e+00       4.373e-01          -0.252           0.082           0.964       1.263e-02          0.1754
  64       3.358e-01      -5.213e+00       4.265e-01          -0.516           0.068           0.854       4.851e-03         -1.8043
Strip 6
  65       1.369e+00      -4.937e+00       3.942e-01           0.391           0.055           0.919       4.625e-03          0.7612
  66       1.346e+00      -4.936e+00       4.025e-01           0.290           0.066           0.955       1.308e-02          0.8786
  67       1.294e+00      -4.935e+00       4.163e-01           0.201           0.074           0.977       2.047e-02          0.9052
  68       1.216e+00      -4.933e+00       4.308e-01           0.141           0.078           0.987       2.669e-02          0.9200
  69       1.117e+00      -4.932e+00       4.434e-01           0.089           0.082           0.993       3.138e-02          0.9258
  70       1.002e+00      -4.931e+00       4.519e-01           0.035           0.084           0.996       3.430e-02          0.8840
  71       8.778e-01      -4.931e+00       4.547e-01          -0.015           0.086           0.996       3.530e-02          0.7836
  72       7.518e-01      -4.931e+00       4.519e-01          -0.047           0.086           0.995       3.431e-02          0.7123
  73       6.312e-01      -4.932e+00       4.455e-01          -0.077           0.086           0.993       3.135e-02          0.6601
  74       5.232e-01      -4.933e+00       4.362e-01          -0.115           0.086           0.990       2.660e-02          0.5977
  75       4.339e-01      -4.934e+00       4.249e-01          -0.171           0.085           0.982       2.035e-02          0.4659
  76       3.686e-01      -4.935e+00       4.126e-01          -0.252           0.082           0.964       1.293e-02          0.2241
  77       3.310e-01      -4.936e+00       4.016e-01          -0.516           0.068           0.854       4.969e-03         -1.7079
Strip 7
  78       1.389e+00      -4.660e+00       3.690e-01           0.391           0.055           0.919       4.735e-03          0.7629
  79       1.365e+00      -4.659e+00       3.775e-01           0.290           0.066           0.955       1.339e-02          0.8818
  80       1.312e+00      -4.658e+00       3.917e-01           0.201           0.074           0.977       2.096e-02          0.9103
  81       1.233e+00      -4.656e+00       4.065e-01           0.141           0.078           0.987       2.732e-02          0.9269
  82       1.131e+00      -4.655e+00       4.194e-01           0.089           0.082           0.993       3.213e-02          0.9344
  83       1.013e+00      -4.654e+00       4.281e-01           0.035           0.084           0.996       3.511e-02          0.8943
  84       8.860e-01      -4.654e+00       4.310e-01          -0.015           0.086           0.996       3.614e-02          0.7954
  85       7.569e-01      -4.654e+00       4.281e-01          -0.047           0.086           0.995       3.513e-02          0.7259
  86       6.335e-01      -4.655e+00       4.215e-01          -0.077           0.086           0.993       3.209e-02          0.6758
  87       5.229e-01      -4.656e+00       4.121e-01          -0.115           0.086           0.990       2.723e-02          0.6164
  88       4.315e-01      -4.657e+00       4.004e-01          -0.171           0.085           0.982       2.084e-02          0.4902
  89       3.646e-01      -4.658e+00       3.879e-01          -0.252           0.082           0.964       1.324e-02          0.2611
  90       3.261e-01      -4.659e+00       3.766e-01          -0.516           0.068           0.854       5.087e-03         -1.6345
Strip 8
  91       1.409e+00      -4.383e+00       3.439e-01           0.391           0.055           0.919       4.845e-03          0.7641
  92       1.385e+00      -4.382e+00       3.525e-01           0.290           0.066           0.955       1.371e-02          0.8842
  93       1.330e+00      -4.381e+00       3.671e-01           0.201           0.074           0.977       2.145e-02          0.9140
  94       1.249e+00      -4.379e+00       3.822e-01           0.141           0.078           0.987       2.796e-02          0.9319
  95       1.145e+00      -4.378e+00       3.954e-01           0.089           0.082           0.993       3.287e-02          0.9407
  96       1.024e+00      -4.377e+00       4.044e-01           0.035           0.084           0.996       3.593e-02          0.9018
  97       8.941e-01      -4.377e+00       4.073e-01          -0.015           0.086           0.996       3.698e-02          0.8042
  98       7.621e-01      -4.377e+00       4.043e-01          -0.047           0.086           0.995       3.594e-02          0.7360
  99       6.358e-01      -4.378e+00       3.976e-01          -0.077           0.086           0.993       3.284e-02          0.6876
 100       5.226e-01      -4.379e+00       3.879e-01          -0.115           0.086           0.990       2.787e-02          0.6307
 101       4.291e-01      -4.380e+00       3.760e-01          -0.171           0.085           0.982       2.132e-02          0.5088
 102       3.606e-01      -4.381e+00       3.632e-01          -0.252           0.082           0.964       1.355e-02          0.2895
 103       3.212e-01      -4.382e+00       3.516e-01          -0.516           0.068           0.854       5.205e-03         -1.5783
Strip 9
 104       1.428e+00      -4.106e+00       3.187e-01           0.391           0.055           0.919       4.955e-03          0.7650
 105       1.404e+00      -4.105e+00       3.276e-01           0.290           0.066           0.955       1.402e-02          0.8860
 106       1.349e+00      -4.104e+00       3.424e-01           0.201           0.074           0.977       2.193e-02          0.9168
 107       1.265e+00      -4.102e+00       3.579e-01           0.141           0.078           0.987       2.859e-02          0.9357
 108       1.159e+00      -4.101e+00       3.714e-01           0.089           0.082           0.993       3.362e-02          0.9455
 109       1.035e+00      -4.100e+00       3.806e-01           0.035           0.084           0.996       3.674e-02          0.9076
 110       9.023e-01      -4.100e+00       3.836e-01          -0.015           0.086           0.996       3.782e-02          0.8109
 111       7.673e-01      -4.100e+00       3.805e-01          -0.047           0.086           0.995       3.676e-02          0.7437
 112       6.381e-01      -4.101e+00       3.736e-01          -0.077           0.086           0.993       3.359e-02          0.6966
 113       5.223e-01      -4.102e+00       3.637e-01          -0.115           0.086           0.990       2.850e-02          0.6417
 114       4.267e-01      -4.103e+00       3.516e-01          -0.171           0.085           0.982       2.181e-02          0.5232
 115       3.567e-01      -4.104e+00       3.384e-01          -0.252           0.082           0.964       1.386e-02          0.3115
 116       3.164e-01      -4.105e+00       3.266e-01          -0.516           0.068           0.854       5.324e-03         -1.5347
Strip 10
 117       1.448e+00      -3.829e+00       2.936e-01           0.391           0.055           0.919       5.066e-03          0.7657
 118       1.423e+00      -3.828e+00       3.026e-01           0.290           0.066           0.955       1.433e-02          0.8874
 119       1.367e+00      -3.827e+00       3.178e-01           0.201           0.074           0.977       2.242e-02          0.9189
 120       1.281e+00      -3.825e+00       3.336e-01           0.141           0.078           0.987       2.923e-02          0.9386
 121       1.173e+00      -3.824e+00       3.474e-01           0.089           0.082           0.993       3.437e-02          0.9492
 122       1.046e+00      -3.823e+00       3.568e-01           0.035           0.084           0.996       3.756e-02          0.9120
 123       9.104e-01      -3.823e+00       3.598e-01          -0.015           0.086           0.996       3.866e-02          0.8161
 124       7.724e-01      -3.823e+00       3.567e-01          -0.047           0.086           0.995       3.758e-02          0.7498
 125       6.404e-01      -3.824e+00       3.497e-01          -0.077           0.086           0.993       3.433e-02          0.7037
 126       5.221e-01      -3.825e+00       3.396e-01          -0.115           0.086           0.990       2.913e-02          0.6503
 127       4.243e-01      -3.826e+00       3.271e-01          -0.171           0.085           0.982       2.229e-02          0.5344
 128       3.527e-01      -3.827e+00       3.137e-01          -0.252           0.082           0.964       1.417e-02          0.3287
 129       3.115e-01      -3.828e+00       3.016e-01          -0.516           0.068           0.854       5.442e-03         -1.5007
Strip 11
 130       1.468e+00      -3.552e+00       2.684e-01           0.391           0.055           0.919       5.176e-03          0.7663
 131       1.443e+00      -3.551e+00       2.776e-01           0.290           0.066           0.955       1.464e-02          0.8885
 132       1.385e+00      -3.550e+00       2.932e-01           0.201           0.074           0.977       2.291e-02          0.9207
 133       1.298e+00      -3.548e+00       3.093e-01           0.141           0.078           0.987       2.987e-02          0.9409
 134       1.186e+00      -3.547e+00       3.234e-01           0.089           0.082           0.993       3.512e-02          0.9521
 135       1.058e+00      -3.546e+00       3.330e-01           0.035           0.084           0.996       3.838e-02          0.9155
 136       9.186e-01      -3.546e+00       3.361e-01          -0.015           0.086           0.996       3.950e-02          0.8202
 137       7.776e-01      -3.546e+00       3.330e-01          -0.047           0.086           0.995       3.839e-02          0.7545
 138       6.427e-01      -3.547e+00       3.257e-01          -0.077           0.086           0.993       3.508e-02          0.7093
 139       5.218e-01      -3.548e+00       3.154e-01          -0.115           0.086           0.990       2.977e-02          0.6571
 140       4.218e-01      -3.549e+00       3.027e-01          -0.171           0.085           0.982       2.277e-02          0.5433
 141       3.487e-01      -3.550e+00       2.890e-01          -0.252           0.082           0.964       1.447e-02          0.3423
 142       3.067e-01      -3.551e+00       2.766e-01          -0.516           0.068           0.854       5.560e-03         -1.4738
Strip 12
 143       1.488e+00      -3.275e+00       2.432e-01           0.391           0.055           0.919       5.286e-03          0.7668
 144       1.462e+00      -3.274e+00       2.527e-01           0.290           0.066           0.955       1.495e-02          0.8895
 145       1.403e+00      -3.273e+00       2.685e-01           0.201           0.074           0.977       2.340e-02          0.9221
 146       1.314e+00      -3.271e+00       2.850e-01           0.141           0.078           0.987       3.050e-02          0.9428
 147       1.200e+00      -3.270e+00       2.994e-01           0.089           0.082           0.993       3.586e-02          0.9545
 148       1.069e+00      -3.269e+00       3.092e-01           0.035           0.084           0.996       3.919e-02          0.9184
 149       9.268e-01      -3.269e+00       3.124e-01          -0.015           0.086           0.996       4.035e-02          0.8236
 150       7.827e-01      -3.269e+00       3.092e-01          -0.047           0.086           0.995       3.921e-02          0.7585
 151       6.450e-01      -3.270e+00       3.018e-01          -0.077           0.086           0.993       3.583e-02          0.7139
 152       5.215e-01      -3.271e+00       2.913e-01          -0.115           0.086           0.990       3.040e-02          0.6626
 153       4.194e-01      -3.272e+00       2.783e-01          -0.171           0.085           0.982       2.326e-02          0.5505
 154       3.448e-01      -3.273e+00       2.643e-01          -0.252           0.082           0.964       1.478e-02          0.3533
 155       3.018e-01      -3.274e+00       2.516e-01          -0.516           0.068           0.854       5.678e-03         -1.4521
Strip 13
 156       1.508e+00      -2.998e+00       2.181e-01           0.391           0.055           0.919       5.396e-03          0.7673
 157       1.481e+00      -2.997e+00       2.277e-01           0.290           0.066           0.955       1.526e-02          0.8903
 158       1.421e+00      -2.996e+00       2.439e-01           0.201           0.074           0.977       2.388e-02          0.9234
 159       1.330e+00      -2.994e+00       2.607e-01           0.141           0.078           0.987       3.114e-02          0.9445
 160       1.214e+00      -2.993e+00       2.754e-01           0.089           0.082           0.993       3.661e-02          0.9566
 161       1.080e+00      -2.992e+00       2.854e-01           0.035           0.084           0.996       4.001e-02          0.9209
 162       9.349e-01      -2.992e+00       2.887e-01          -0.015           0.086           0.996       4.119e-02          0.8265
 163       7.879e-01      -2.992e+00       2.854e-01          -0.047           0.086           0.995       4.003e-02          0.7618
 164       6.473e-01      -2.993e+00       2.779e-01          -0.077           0.086           0.993       3.657e-02          0.7178
 165       5.212e-01      -2.994e+00       2.671e-01          -0.115           0.086           0.990       3.103e-02          0.6674
 166       4.170e-01      -2.995e+00       2.538e-01          -0.171           0.085           0.982       2.374e-02          0.5567
 167       3.408e-01      -2.996e+00       2.395e-01          -0.252           0.082           0.964       1.509e-02          0.3626
 168       2.970e-01      -2.997e+00       2.266e-01          -0.516           0.068           0.854       5.797e-03         -1.4340
Strip 14
 169       1.528e+00      -2.721e+00       1.929e-01           0.391           0.055           0.919       5.506e-03          0.7677
 170       1.501e+00      -2.720e+00       2.027e-01           0.290           0.066           0.955       1.557e-02          0.8911
 171       1.439e+00      -2.719e+00       2.193e-01           0.201           0.074           0.977       2.437e-02          0.9245
 172       1.346e+00      -2.717e+00       2.364e-01           0.141           0.078           0.987       3.177e-02          0.9461
 173       1.228e+00      -2.716e+00       2.514e-01           0.089           0.082           0.993       3.736e-02          0.9585
 174       1.091e+00      -2.715e+00       2.616e-01           0.035           0.084           0.996       4.083e-02          0.9232
 175       9.431e-01      -2.715e+00       2.649e-01          -0.015           0.086           0.996       4.203e-02          0.8291
 176       7.931e-01      -2.715e+00       2.616e-01          -0.047           0.086           0.995       4.084e-02          0.7649
 177       6.496e-01      -2.716e+00       2.539e-01          -0.077           0.086           0.993       3.732e-02          0.7214
 178       5.209e-01      -2.717e+00       2.429e-01          -0.115           0.086           0.990       3.166e-02          0.6717
 179       4.146e-01      -2.718e+00       2.294e-01          -0.171           0.085           0.982       2.423e-02          0.5622
 180       3.368e-01      -2.719e+00       2.148e-01          -0.252           0.082           0.964       1.540e-02          0.3709
 181       2.921e-01      -2.721e+00       2.016e-01          -0.516           0.068           0.854       5.915e-03         -1.4178
Strip 15
 182       1.547e+00      -2.444e+00       1.677e-01           0.391           0.055           0.919       5.616e-03          0.7682
 183       1.520e+00      -2.443e+00       1.778e-01           0.290           0.066           0.955       1.589e-02          0.8920
 184       1.457e+00      -2.442e+00       1.946e-01           0.201           0.074           0.977       2.486e-02          0.9258
 185       1.362e+00      -2.440e+00       2.121e-01           0.141           0.078           0.987       3.241e-02          0.9477
 186       1.242e+00      -2.439e+00       2.274e-01           0.089           0.082           0.993       3.810e-02          0.9604
 187       1.102e+00      -2.438e+00       2.378e-01           0.035           0.084           0.996       4.164e-02          0.9253
 188       9.512e-01      -2.438e+00       2.412e-01          -0.015           0.086           0.996       4.287e-02          0.8316
 189       7.982e-01      -2.438e+00       2.378e-01          -0.047           0.086           0.995       4.166e-02          0.7678
 190       6.518e-01      -2.439e+00       2.300e-01          -0.077           0.086           0.993       3.806e-02          0.7250
 191       5.206e-01      -2.440e+00       2.188e-01          -0.115           0.086           0.990       3.230e-02          0.6761
 192       4.122e-01      -2.441e+00       2.050e-01          -0.171           0.085           0.982       2.471e-02          0.5679
 193       3.329e-01      -2.442e+00       1.901e-01          -0.252           0.082           0.964       1.571e-02          0.3794
 194       2.872e-01      -2.444e+00       1.767e-01          -0.516           0.068           0.854       6.033e-03         -1.4016
Strip 16
 195       1.567e+00      -2.167e+00       1.426e-01           0.391           0.055           0.919       5.726e-03          0.7692
 196       1.539e+00      -2.167e+00       1.528e-01           0.290           0.066           0.955       1.620e-02          0.8937
 197       1.475e+00      -2.165e+00       1.700e-01           0.201           0.074           0.977       2.535e-02          0.9280
 198       1.379e+00      -2.163e+00       1.878e-01           0.141           0.078           0.987       3.304e-02          0.9500
 199       1.256e+00      -2.162e+00       2.034e-01           0.089           0.082           0.993       3.885e-02          0.9628
 200       1.113e+00      -2.161e+00       2.140e-01           0.035           0.084           0.996       4.246e-02          0.9277
 201       9.594e-01      -2.161e+00       2.175e-01          -0.015           0.086           0.996       4.371e-02          0.8341
 202       8.034e-01      -2.161e+00       2.140e-01          -0.047           0.086           0.995       4.248e-02          0.7706
 203       6.541e-01      -2.162e+00       2.060e-01          -0.077           0.086           0.993       3.881e-02          0.7286
 204       5.203e-01      -2.163e+00       1.946e-01          -0.115           0.086           0.990       3.293e-02          0.6811
 205       4.098e-01      -2.164e+00       1.805e-01          -0.171           0.085           0.982       2.520e-02          0.5747
 206       3.289e-01      -2.165e+00       1.654e-01          -0.252           0.082           0.964       1.601e-02          0.3893
 207       2.824e-01      -2.167e+00       1.517e-01          -0.516           0.068           0.854       6.152e-03         -1.3827
Strip 17
 208       1.592e+00      -1.888e+00       1.173e-01           0.391           0.043           0.919       6.056e-03          0.7663
 209       1.562e+00      -1.887e+00       1.279e-01           0.290           0.056           0.955       1.712e-02          0.8904
 210       1.496e+00      -1.886e+00       1.458e-01           0.201           0.066           0.977       2.677e-02          0.9245
 211       1.395e+00      -1.884e+00       1.644e-01           0.141           0.071           0.988       3.487e-02          0.9461
 212       1.267e+00      -1.883e+00       1.807e-01           0.089           0.073           0.993       4.097e-02          0.9582
 213       1.119e+00      -1.882e+00       1.917e-01           0.035           0.074           0.997       4.476e-02          0.9222
 214       9.587e-01      -1.882e+00       1.953e-01          -0.015           0.073           0.997       4.607e-02          0.8272
 215       7.962e-01      -1.882e+00       1.917e-01          -0.047           0.071           0.996       4.479e-02          0.7620
 216       6.409e-01      -1.883e+00       1.834e-01          -0.077           0.068           0.995       4.094e-02          0.7171
 217       5.016e-01      -1.884e+00       1.715e-01          -0.115           0.063           0.991       3.476e-02          0.6651
 218       3.865e-01      -1.885e+00       1.568e-01          -0.171           0.054           0.984       2.662e-02          0.5522
 219       3.022e-01      -1.886e+00       1.410e-01          -0.252           0.038           0.967       1.693e-02          0.3568
 220       2.538e-01      -1.888e+00       1.267e-01          -0.514          -0.020           0.857       6.530e-03         -1.3984
Strip 18
 221       1.621e+00      -1.607e+00       9.180e-02           0.391           0.043           0.919       6.421e-03          0.7643
 222       1.589e+00      -1.606e+00       1.031e-01           0.290           0.056           0.955       1.815e-02          0.8859
 223       1.519e+00      -1.605e+00       1.221e-01           0.201           0.066           0.977       2.839e-02          0.9174
 224       1.412e+00      -1.603e+00       1.419e-01           0.141           0.071           0.988       3.698e-02          0.9368
 225       1.276e+00      -1.602e+00       1.591e-01           0.089           0.073           0.993       4.346e-02          0.9470
 226       1.119e+00      -1.601e+00       1.708e-01           0.035           0.074           0.997       4.748e-02          0.9089
 227       9.492e-01      -1.601e+00       1.747e-01          -0.015           0.073           0.997       4.887e-02          0.8115
 228       7.769e-01      -1.601e+00       1.708e-01          -0.047           0.071           0.996       4.751e-02          0.7431
 229       6.120e-01      -1.602e+00       1.620e-01          -0.077           0.068           0.995       4.342e-02          0.6939
 230       4.643e-01      -1.603e+00       1.493e-01          -0.115           0.063           0.991       3.686e-02          0.6356
 231       3.422e-01      -1.604e+00       1.338e-01          -0.171           0.054           0.984       2.822e-02          0.5129
 232       2.528e-01      -1.605e+00       1.170e-01          -0.252           0.038           0.967       1.795e-02          0.2961
 233       2.015e-01      -1.606e+00       1.019e-01          -0.515          -0.020           0.857       6.921e-03         -1.5203
Strip 19
 234       1.649e+00      -1.326e+00       6.633e-02           0.391           0.043           0.919       6.786e-03          0.7628
 235       1.617e+00      -1.325e+00       7.830e-02           0.290           0.056           0.955       1.919e-02          0.8824
 236       1.542e+00      -1.324e+00       9.841e-02           0.201           0.066           0.977       3.001e-02          0.9115
 237       1.429e+00      -1.322e+00       1.193e-01           0.141           0.071           0.988       3.909e-02          0.9287
 238       1.286e+00      -1.321e+00       1.376e-01           0.089           0.073           0.993       4.594e-02          0.9368
 239       1.119e+00      -1.320e+00       1.500e-01           0.035           0.074           0.997       5.020e-02          0.8966
 240       9.396e-01      -1.320e+00       1.540e-01          -0.015           0.073           0.997       5.167e-02          0.7968
 241       7.575e-01      -1.321e+00       1.499e-01          -0.047           0.071           0.996       5.022e-02          0.7256
 242       5.832e-01      -1.321e+00       1.406e-01          -0.077           0.068           0.995       4.590e-02          0.6727
 243       4.270e-01      -1.322e+00       1.272e-01          -0.115           0.063           0.991       3.897e-02          0.6093
 244       2.979e-01      -1.323e+00       1.108e-01          -0.171           0.054           0.984       2.983e-02          0.4778
 245       2.035e-01      -1.324e+00       9.299e-02          -0.252           0.038           0.967       1.897e-02          0.2417
 246       1.491e-01      -1.325e+00       7.697e-02          -0.515          -0.020           0.857       7.312e-03         -1.6301
Strip 20
 247       1.678e+00      -1.045e+00       4.087e-02           0.391           0.043           0.919       7.151e-03          0.7610
 248       1.644e+00      -1.044e+00       5.349e-02           0.290           0.056           0.955       2.022e-02          0.8784
 249       1.565e+00      -1.043e+00       7.471e-02           0.201           0.066           0.977       3.163e-02          0.9052
 250       1.446e+00      -1.042e+00       9.676e-02           0.141           0.071           0.987       4.121e-02          0.9203
 251       1.295e+00      -1.040e+00       1.160e-01           0.089           0.073           0.993       4.843e-02          0.9266
 252       1.119e+00      -1.040e+00       1.291e-01           0.035           0.074           0.997       5.291e-02          0.8847
 253       9.301e-01      -1.039e+00       1.334e-01          -0.015           0.073           0.997       5.446e-02          0.7829
 254       7.381e-01      -1.040e+00       1.291e-01          -0.047           0.071           0.996       5.294e-02          0.7091
 255       5.544e-01      -1.040e+00       1.192e-01          -0.077           0.068           0.995       4.838e-02          0.6529
 256       3.897e-01      -1.041e+00       1.051e-01          -0.115           0.063           0.991       4.107e-02          0.5847
 257       2.536e-01      -1.042e+00       8.774e-02          -0.171           0.054           0.984       3.144e-02          0.4450
 258       1.541e-01      -1.043e+00       6.898e-02          -0.252           0.038           0.967       1.999e-02          0.1909
 259       9.680e-02      -1.044e+00       5.209e-02          -0.515          -0.020           0.857       7.702e-03         -1.7319
Strip 21
 260       1.707e+00      -7.635e-01       1.540e-02           0.392           0.043           0.919       7.516e-03          0.7575
 261       1.671e+00      -7.628e-01       2.868e-02           0.290           0.056           0.955       2.125e-02          0.8718
 262       1.588e+00      -7.617e-01       5.100e-02           0.201           0.066           0.977       3.325e-02          0.8964
 263       1.463e+00      -7.606e-01       7.421e-02           0.141           0.071           0.987       4.332e-02          0.9106
 264       1.304e+00      -7.596e-01       9.445e-02           0.089           0.073           0.993       5.092e-02          0.9160
 265       1.120e+00      -7.589e-01       1.082e-01           0.035           0.074           0.997       5.563e-02          0.8728
 266       9.206e-01      -7.587e-01       1.127e-01          -0.015           0.073           0.997       5.726e-02          0.7693
 267       7.187e-01      -7.589e-01       1.082e-01          -0.047           0.071           0.996       5.566e-02          0.6932
 268       5.256e-01      -7.595e-01       9.782e-02          -0.077           0.068           0.995       5.087e-02          0.6336
 269       3.524e-01      -7.602e-01       8.299e-02          -0.115           0.063           0.991       4.317e-02          0.5603
 270       2.094e-01      -7.611e-01       6.472e-02          -0.171           0.054           0.984       3.305e-02          0.4129
 271       1.047e-01      -7.620e-01       4.498e-02          -0.252           0.038           0.967       2.101e-02          0.1431
 272       4.447e-02      -7.629e-01       2.721e-02          -0.516          -0.020           0.857       8.093e-03         -1.8244
Strip 22
 273       1.722e+00      -4.672e-01       2.669e-03           0.391           0.000           0.920       8.497e-03          0.7598
 274       1.684e+00      -4.667e-01       1.628e-02           0.290           0.000           0.957       2.401e-02          0.8724
 275       1.599e+00      -4.659e-01       3.915e-02           0.201           0.000           0.980       3.751e-02          0.8950
 276       1.472e+00      -4.651e-01       6.293e-02           0.141           0.000           0.990       4.882e-02          0.9075
 277       1.309e+00      -4.644e-01       8.368e-02           0.089           0.000           0.996       5.733e-02          0.9118
 278       1.120e+00      -4.639e-01       9.780e-02           0.035           0.000           0.999       6.260e-02          0.8677
 279       9.158e-01      -4.638e-01       1.024e-01          -0.015           0.000           1.000       6.443e-02          0.7634
 280       7.090e-01      -4.639e-01       9.775e-02          -0.047           0.000           0.999       6.265e-02          0.6866
 281       5.111e-01      -4.643e-01       8.713e-02          -0.077           0.000           0.997       5.729e-02          0.6265
 282       3.338e-01      -4.648e-01       7.193e-02          -0.115           0.000           0.993       4.867e-02          0.5529
 283       1.872e-01      -4.654e-01       5.320e-02          -0.171           0.000           0.985       3.729e-02          0.4040
 284       8.000e-02      -4.661e-01       3.298e-02          -0.252          -0.000           0.968       2.373e-02          0.1268
 285       1.831e-02      -4.667e-01       1.477e-02          -0.516          -0.000           0.856       9.128e-03         -1.9062
Strip 23
 286       1.722e+00      -1.557e-01       2.669e-03           0.391           0.000           0.920       8.497e-03          0.7620
 287       1.684e+00      -1.556e-01       1.628e-02           0.290           0.000           0.957       2.401e-02          0.8761
 288       1.599e+00      -1.553e-01       3.915e-02           0.201           0.000           0.980       3.751e-02          0.8991
 289       1.472e+00      -1.550e-01       6.293e-02           0.141           0.000           0.990       4.882e-02          0.9107
 290       1.309e+00      -1.548e-01       8.368e-02           0.089           0.000           0.996       5.733e-02          0.9138
 291       1.120e+00      -1.546e-01       9.780e-02           0.035           0.000           0.999       6.260e-02          0.8691
 292       9.158e-01      -1.546e-01       1.024e-01          -0.015           0.000           1.000       6.443e-02          0.7647
 293       7.090e-01      -1.546e-01       9.775e-02          -0.047           0.000           0.999       6.265e-02          0.6883
 294       5.111e-01      -1.548e-01       8.713e-02          -0.077           0.000           0.997       5.729e-02          0.6291
 295       3.338e-01      -1.549e-01       7.193e-02          -0.115           0.000           0.993       4.867e-02          0.5565
 296       1.872e-01      -1.551e-01       5.320e-02          -0.171           0.000           0.985       3.729e-02          0.4078
 297       8.000e-02      -1.554e-01       3.298e-02          -0.252           0.000           0.968       2.373e-02          0.1302
 298       1.831e-02      -1.556e-01       1.477e-02          -0.516           0.000           0.856       9.128e-03         -1.9022
Strip 24
 299       1.722e+00       1.557e-01       2.669e-03           0.391           0.000           0.920       8.497e-03          0.7620
 300       1.684e+00       1.556e-01       1.628e-02           0.290           0.000           0.957       2.401e-02          0.8761
 301       1.599e+00       1.553e-01       3.915e-02           0.201           0.000           0.980       3.751e-02          0.8991
 302       1.472e+00       1.550e-01       6.293e-02           0.141           0.000           0.990       4.882e-02          0.9107
 303       1.309e+00       1.548e-01       8.368e-02           0.089           0.000           0.996       5.733e-02          0.9138
 304       1.120e+00       1.546e-01       9.780e-02           0.035           0.000           0.999       6.260e-02          0.8691
 305       9.158e-01       1.546e-01       1.024e-01          -0.015           0.000           1.000       6.443e-02          0.7647
 306       7.090e-01       1.546e-01       9.775e-02          -0.047           0.000           0.999       6.265e-02          0.6883
 307       5.111e-01       1.548e-01       8.713e-02          -0.077           0.000           0.997       5.729e-02          0.6291
 308       3.338e-01       1.549e-01       7.193e-02          -0.115           0.000           0.993       4.867e-02          0.5565
 309       1.872e-01       1.551e-01       5.320e-02          -0.171           0.000           0.985       3.729e-02          0.4078
 310       8.000e-02       1.554e-01       3.298e-02          -0.252           0.000           0.968       2.373e-02          0.1302
 311       1.831e-02       1.556e-01       1.477e-02          -0.516           0.000           0.856       9.128e-03         -1.9022
Strip 25
 312       1.722e+00       4.672e-01       2.669e-03           0.391           0.000           0.920       8.497e-03          0.7598
 313       1.684e+00       4.667e-01       1.628e-02           0.290           0.000           0.957       2.401e-02          0.8724
 314       1.599e+00       4.659e-01       3.915e-02           0.201           0.000           0.980       3.751e-02          0.8950
 315       1.472e+00       4.651e-01       6.293e-02           0.141           0.000           0.990       4.882e-02          0.9075
 316       1.309e+00       4.644e-01       8.368e-02           0.089           0.000           0.996       5.733e-02          0.9118
 317       1.120e+00       4.639e-01       9.780e-02           0.035           0.000           0.999       6.260e-02          0.8677
 318       9.158e-01       4.638e-01       1.024e-01          -0.015           0.000           1.000       6.443e-02          0.7634
 319       7.090e-01       4.639e-01       9.775e-02          -0.047           0.000           0.999       6.265e-02          0.6866
 320       5.111e-01       4.643e-01       8.713e-02          -0.077           0.000           0.997       5.729e-02          0.6265
 321       3.338e-01       4.648e-01       7.193e-02          -0.115           0.000           0.993       4.867e-02          0.5529
 322       1.872e-01       4.654e-01       5.320e-02          -0.171           0.000           0.985       3.729e-02          0.4040
 323       8.000e-02       4.661e-01       3.298e-02          -0.252           0.000           0.968       2.373e-02          0.1268
 324       1.831e-02       4.667e-01       1.477e-02          -0.516           0.000           0.856       9.128e-03         -1.9062
Strip 26
 325       1.707e+00       7.635e-01       1.540e-02           0.392          -0.043           0.919       7.516e-03          0.7575
 326       1.671e+00       7.628e-01       2.868e-02           0.290          -0.056           0.955       2.125e-02          0.8718
 327       1.588e+00       7.617e-01       5.100e-02           0.201          -0.066           0.977       3.325e-02          0.8964
 328       1.463e+00       7.606e-01       7.421e-02           0.141          -0.071           0.987       4.332e-02          0.9106
 329       1.304e+00       7.596e-01       9.445e-02           0.089          -0.073           0.993       5.092e-02          0.9160
 330       1.120e+00       7.589e-01       1.082e-01           0.035          -0.074           0.997       5.563e-02          0.8728
 331       9.206e-01       7.587e-01       1.127e-01          -0.015          -0.073           0.997       5.726e-02          0.7693
 332       7.187e-01       7.589e-01       1.082e-01          -0.047          -0.071           0.996       5.566e-02          0.6932
 333       5.256e-01       7.595e-01       9.782e-02          -0.077          -0.068           0.995       5.087e-02          0.6336
 334       3.524e-01       7.602e-01       8.299e-02          -0.115          -0.063           0.991       4.317e-02          0.5603
 335       2.094e-01       7.611e-01       6.472e-02          -0.171          -0.054           0.984       3.305e-02          0.4129
 336       1.047e-01       7.620e-01       4.498e-02          -0.252          -0.038           0.967       2.101e-02          0.1431
 337       4.447e-02       7.629e-01       2.721e-02          -0.516           0.020           0.857       8.093e-03         -1.8244
Strip 27
 338       1.678e+00       1.045e+00       4.087e-02           0.391          -0.043           0.919       7.151e-03          0.7610
 339       1.644e+00       1.044e+00       5.349e-02           0.290          -0.056           0.955       2.022e-02          0.8784
 340       1.565e+00       1.043e+00       7.471e-02           0.201          -0.066           0.977       3.163e-02          0.9052
 341       1.446e+00       1.042e+00       9.676e-02           0.141          -0.071           0.987       4.121e-02          0.9203
 342       1.295e+00       1.040e+00       1.160e-01           0.089          -0.073           0.993       4.843e-02          0.9266
 343       1.119e+00       1.040e+00       1.291e-01           0.035          -0.074           0.997       5.291e-02          0.8847
 344       9.301e-01       1.039e+00       1.334e-01          -0.015          -0.073           0.997       5.446e-02          0.7829
 345       7.381e-01       1.040e+00       1.291e-01          -0.047          -0.071           0.996       5.294e-02          0.7091
 346       5.544e-01       1.040e+00       1.192e-01          -0.077          -0.068           0.995       4.838e-02          0.6529
 347       3.897e-01       1.041e+00       1.051e-01          -0.115          -0.063           0.991       4.107e-02          0.5847
 348       2.536e-01       1.042e+00       8.774e-02          -0.171          -0.054           0.984       3.144e-02          0.4450
 349       1.541e-01       1.043e+00       6.898e-02          -0.252          -0.038           0.967       1.999e-02          0.1909
 350       9.680e-02       1.044e+00       5.209e-02          -0.515           0.020           0.857       7.702e-03         -1.7319
Strip 28
 351       1.649e+00       1.326e+00       6.633e-02           0.391          -0.043           0.919       6.786e-03          0.7628
 352       1.617e+00       1.325e+00       7.830e-02           0.290          -0.056           0.955       1.919e-02          0.8824
 353       1.542e+00       1.324e+00       9.841e-02           0.201          -0.066           0.977       3.001e-02          0.9115
 354       1.429e+00       1.322e+00       1.193e-01           0.141          -0.071           0.988       3.909e-02          0.9287
 355       1.286e+00       1.321e+00       1.376e-01           0.089          -0.073           0.993       4.594e-02          0.9368
 356       1.119e+00       1.320e+00       1.500e-01           0.035          -0.074           0.997       5.020e-02          0.8966
 357       9.396e-01       1.320e+00       1.540e-01          -0.015          -0.073           0.997       5.167e-02          0.7968
 358       7.575e-01       1.321e+00       1.499e-01          -0.047          -0.071           0.996       5.022e-02          0.7256
 359       5.832e-01       1.321e+00       1.406e-01          -0.077          -0.068           0.995       4.590e-02          0.6727
 360       4.270e-01       1.322e+00       1.272e-01          -0.115          -0.063           0.991       3.897e-02          0.6093
 361       2.979e-01       1.323e+00       1.108e-01          -0.171          -0.054           0.984       2.983e-02          0.4778
 362       2.035e-01       1.324e+00       9.299e-02          -0.252          -0.038           0.967       1.897e-02          0.2417
 363       1.491e-01       1.325e+00       7.697e-02          -0.515           0.020           0.857       7.312e-03         -1.6301
Strip 29
 364       1.621e+00       1.607e+00       9.180e-02           0.391          -0.043           0.919       6.421e-03          0.7643
 365       1.589e+00       1.606e+00       1.031e-01           0.290          -0.056           0.955       1.815e-02          0.8859
 366       1.519e+00       1.605e+00       1.221e-01           0.201          -0.066           0.977       2.839e-02          0.9174
 367       1.412e+00       1.603e+00       1.419e-01           0.141          -0.071           0.988       3.698e-02          0.9368
 368       1.276e+00       1.602e+00       1.591e-01           0.089          -0.073           0.993       4.346e-02          0.9470
 369       1.119e+00       1.601e+00       1.708e-01           0.035          -0.074           0.997       4.748e-02          0.9089
 370       9.492e-01       1.601e+00       1.747e-01          -0.015          -0.073           0.997       4.887e-02          0.8115
 371       7.769e-01       1.601e+00       1.708e-01          -0.047          -0.071           0.996       4.751e-02          0.7431
 372       6.120e-01       1.602e+00       1.620e-01          -0.077          -0.068           0.995       4.342e-02          0.6939
 373       4.643e-01       1.603e+00       1.493e-01          -0.115          -0.063           0.991       3.686e-02          0.6356
 374       3.422e-01       1.604e+00       1.338e-01          -0.171          -0.054           0.984       2.822e-02          0.5129
 375       2.528e-01       1.605e+00       1.170e-01          -0.252          -0.038           0.967       1.795e-02          0.2961
 376       2.015e-01       1.606e+00       1.019e-01          -0.515           0.020           0.857       6.921e-03         -1.5203
Strip 30
 377       1.592e+00       1.888e+00       1.173e-01           0.391          -0.043           0.919       6.056e-03          0.7663
 378       1.562e+00       1.887e+00       1.279e-01           0.290          -0.056           0.955       1.712e-02          0.8904
 379       1.496e+00       1.886e+00       1.458e-01           0.201          -0.066           0.977       2.677e-02          0.9245
 380       1.395e+00       1.884e+00       1.644e-01           0.141          -0.071           0.988       3.487e-02          0.9461
 381       1.267e+00       1.883e+00       1.807e-01           0.089          -0.073           0.993       4.097e-02          0.9582
 382       1.119e+00       1.882e+00       1.917e-01           0.035          -0.074           0.997       4.476e-02          0.9222
 383       9.587e-01       1.882e+00       1.953e-01          -0.015          -0.073           0.997       4.607e-02          0.8272
 384       7.962e-01       1.882e+00       1.917e-01          -0.047          -0.071           0.996       4.479e-02          0.7620
 385       6.409e-01       1.883e+00       1.834e-01          -0.077          -0.068           0.995       4.094e-02          0.7171
 386       5.016e-01       1.884e+00       1.715e-01          -0.115          -0.063           0.991       3.476e-02          0.6651
 387       3.865e-01       1.885e+00       1.568e-01          -0.171          -0.054           0.984       2.662e-02          0.5522
 388       3.022e-01       1.886e+00       1.410e-01          -0.252          -0.038           0.967       1.693e-02          0.3568
 389       2.538e-01       1.888e+00       1.267e-01          -0.514           0.020           0.857       6.530e-03         -1.3984
Strip 31
 390       1.567e+00       2.167e+00       1.426e-01           0.391          -0.055           0.919       5.726e-03          0.7692
 391       1.539e+00       2.167e+00       1.528e-01           0.290          -0.066           0.955       1.620e-02          0.8937
 392       1.475e+00       2.165e+00       1.700e-01           0.201          -0.074           0.977       2.535e-02          0.9280
 393       1.379e+00       2.163e+00       1.878e-01           0.141          -0.078           0.987       3.304e-02          0.9500
 394       1.256e+00       2.162e+00       2.034e-01           0.089          -0.082           0.993       3.885e-02          0.9628
 395       1.113e+00       2.161e+00       2.140e-01           0.035          -0.084           0.996       4.246e-02          0.9277
 396       9.594e-01       2.161e+00       2.175e-01          -0.015          -0.086           0.996       4.371e-02          0.8341
 397       8.034e-01       2.161e+00       2.140e-01          -0.047          -0.086           0.995       4.248e-02          0.7706
 398       6.541e-01       2.162e+00       2.060e-01          -0.077          -0.086           0.993       3.881e-02          0.7286
 399       5.203e-01       2.163e+00       1.946e-01          -0.115          -0.086           0.990       3.293e-02          0.6811
 400       4.098e-01       2.164e+00       1.805e-01          -0.171          -0.085           0.982       2.520e-02          0.5747
 401       3.289e-01       2.165e+00       1.654e-01          -0.252          -0.082           0.964       1.601e-02          0.3893
 402       2.824e-01       2.167e+00       1.517e-01          -0.516          -0.068           0.854       6.152e-03         -1.3827
Strip 32
 403       1.547e+00       2.444e+00       1.677e-01           0.391          -0.055           0.919       5.616e-03          0.7682
 404       1.520e+00       2.443e+00       1.778e-01           0.290          -0.066           0.955       1.589e-02          0.8920
 405       1.457e+00       2.442e+00       1.946e-01           0.201          -0.074           0.977       2.486e-02          0.9258
 406       1.362e+00       2.440e+00       2.121e-01           0.141          -0.078           0.987       3.241e-02          0.9477
 407       1.242e+00       2.439e+00       2.274e-01           0.089          -0.082           0.993       3.810e-02          0.9604
 408       1.102e+00       2.438e+00       2.378e-01           0.035          -0.084           0.996       4.164e-02          0.9253
 409       9.512e-01       2.438e+00       2.412e-01          -0.015          -0.086           0.996       4.287e-02          0.8316
 410       7.982e-01       2.438e+00       2.378e-01          -0.047          -0.086           0.995       4.166e-02          0.7678
 411       6.518e-01       2.439e+00       2.300e-01          -0.077          -0.086           0.993       3.806e-02          0.7250
 412       5.206e-01       2.440e+00       2.188e-01          -0.115          -0.086           0.990       3.230e-02          0.6761
 413       4.122e-01       2.441e+00       2.050e-01          -0.171          -0.085           0.982       2.471e-02          0.5679
 414       3.329e-01       2.442e+00       1.901e-01          -0.252          -0.082           0.964       1.571e-02          0.3794
 415       2.872e-01       2.444e+00       1.767e-01          -0.516          -0.068           0.854       6.033e-03         -1.4016
Strip 33
 416       1.528e+00       2.721e+00       1.929e-01           0.391          -0.055           0.919       5.506e-03          0.7677
 417       1.501e+00       2.720e+00       2.027e-01           0.290          -0.066           0.955       1.557e-02          0.8911
 418       1.439e+00       2.719e+00       2.193e-01           0.201          -0.074           0.977       2.437e-02          0.9245
 419       1.346e+00       2.717e+00       2.364e-01           0.141          -0.078           0.987       3.177e-02          0.9461
 420       1.228e+00       2.716e+00       2.514e-01           0.089          -0.082           0.993       3.736e-02          0.9585
 421       1.091e+00       2.715e+00       2.616e-01           0.035          -0.084           0.996       4.083e-02          0.9232
 422       9.431e-01       2.715e+00       2.649e-01          -0.015          -0.086           0.996       4.203e-02          0.8291
 423       7.931e-01       2.715e+00       2.616e-01          -0.047          -0.086           0.995       4.084e-02          0.7649
 424       6.496e-01       2.716e+00       2.539e-01          -0.077          -0.086           0.993       3.732e-02          0.7214
 425       5.209e-01       2.717e+00       2.429e-01          -0.115          -0.086           0.990       3.166e-02          0.6717
 426       4.146e-01       2.718e+00       2.294e-01          -0.171          -0.085           0.982       2.423e-02          0.5622
 427       3.368e-01       2.719e+00       2.148e-01          -0.252          -0.082           0.964       1.540e-02          0.3709
 428       2.921e-01       2.721e+00       2.016e-01          -0.516          -0.068           0.854       5.915e-03         -1.4178
Strip 34
 429       1.508e+00       2.998e+00       2.181e-01           0.391          -0.055           0.919       5.396e-03          0.7673
 430       1.481e+00       2.997e+00       2.277e-01           0.290          -0.066           0.955       1.526e-02          0.8903
 431       1.421e+00       2.996e+00       2.439e-01           0.201          -0.074           0.977       2.388e-02          0.9234
 432       1.330e+00       2.994e+00       2.607e-01           0.141          -0.078           0.987       3.114e-02          0.9445
 433       1.214e+00       2.993e+00       2.754e-01           0.089          -0.082           0.993       3.661e-02          0.9566
 434       1.080e+00       2.992e+00       2.854e-01           0.035          -0.084           0.996       4.001e-02          0.9209
 435       9.349e-01       2.992e+00       2.887e-01          -0.015          -0.086           0.996       4.119e-02          0.8265
 436       7.879e-01       2.992e+00       2.854e-01          -0.047          -0.086           0.995       4.003e-02          0.7618
 437       6.473e-01       2.993e+00       2.779e-01          -0.077          -0.086           0.993       3.657e-02          0.7178
 438       5.212e-01       2.994e+00       2.671e-01          -0.115          -0.086           0.990       3.103e-02          0.6674
 439       4.170e-01       2.995e+00       2.538e-01          -0.171          -0.085           0.982       2.374e-02          0.5567
 440       3.408e-01       2.996e+00       2.395e-01          -0.252          -0.082           0.964       1.509e-02          0.3626
 441       2.970e-01       2.997e+00       2.266e-01          -0.516          -0.068           0.854       5.797e-03         -1.4340
Strip 35
 442       1.488e+00       3.275e+00       2.432e-01           0.391          -0.055           0.919       5.286e-03          0.7668
 443       1.462e+00       3.274e+00       2.527e-01           0.290          -0.066           0.955       1.495e-02          0.8895
 444       1.403e+00       3.273e+00       2.685e-01           0.201          -0.074           0.977       2.340e-02          0.9221
 445       1.314e+00       3.271e+00       2.850e-01           0.141          -0.078           0.987       3.050e-02          0.9428
 446       1.200e+00       3.270e+00       2.994e-01           0.089          -0.082           0.993       3.586e-02          0.9545
 447       1.069e+00       3.269e+00       3.092e-01           0.035          -0.084           0.996       3.919e-02          0.9184
 448       9.268e-01       3.269e+00       3.124e-01          -0.015          -0.086           0.996       4.035e-02          0.8236
 449       7.827e-01       3.269e+00       3.092e-01          -0.047          -0.086           0.995       3.921e-02          0.7585
 450       6.450e-01       3.270e+00       3.018e-01          -0.077          -0.086           0.993       3.583e-02          0.7139
 451       5.215e-01       3.271e+00       2.913e-01          -0.115          -0.086           0.990       3.040e-02          0.6626
 452       4.194e-01       3.272e+00       2.783e-01          -0.171          -0.085           0.982       2.326e-02          0.5505
 453       3.448e-01       3.273e+00       2.643e-01          -0.252          -0.082           0.964       1.478e-02          0.3533
 454       3.018e-01       3.274e+00       2.516e-01          -0.516          -0.068           0.854       5.678e-03         -1.4521
Strip 36
 455       1.468e+00       3.552e+00       2.684e-01           0.391          -0.055           0.919       5.176e-03          0.7663
 456       1.443e+00       3.551e+00       2.776e-01           0.290          -0.066           0.955       1.464e-02          0.8885
 457       1.385e+00       3.550e+00       2.932e-01           0.201          -0.074           0.977       2.291e-02          0.9207
 458       1.298e+00       3.548e+00       3.093e-01           0.141          -0.078           0.987       2.987e-02          0.9409
 459       1.186e+00       3.547e+00       3.234e-01           0.089          -0.082           0.993       3.512e-02          0.9521
 460       1.058e+00       3.546e+00       3.330e-01           0.035          -0.084           0.996       3.838e-02          0.9155
 461       9.186e-01       3.546e+00       3.361e-01          -0.015          -0.086           0.996       3.950e-02          0.8202
 462       7.776e-01       3.546e+00       3.330e-01          -0.047          -0.086           0.995       3.839e-02          0.7545
 463       6.427e-01       3.547e+00       3.257e-01          -0.077          -0.086           0.993       3.508e-02          0.7093
 464       5.218e-01       3.548e+00       3.154e-01          -0.115          -0.086           0.990       2.977e-02          0.6571
 465       4.218e-01       3.549e+00       3.027e-01          -0.171          -0.085           0.982       2.277e-02          0.5433
 466       3.487e-01       3.550e+00       2.890e-01          -0.252          -0.082           0.964       1.447e-02          0.3423
 467       3.067e-01       3.551e+00       2.766e-01          -0.516          -0.068           0.854       5.560e-03         -1.4738
Strip 37
 468       1.448e+00       3.829e+00       2.936e-01           0.391          -0.055           0.919       5.066e-03          0.7657
 469       1.423e+00       3.828e+00       3.026e-01           0.290          -0.066           0.955       1.433e-02          0.8874
 470       1.367e+00       3.827e+00       3.178e-01           0.201          -0.074           0.977       2.242e-02          0.9189
 471       1.281e+00       3.825e+00       3.336e-01           0.141          -0.078           0.987       2.923e-02          0.9386
 472       1.173e+00       3.824e+00       3.474e-01           0.089          -0.082           0.993       3.437e-02          0.9492
 473       1.046e+00       3.823e+00       3.568e-01           0.035          -0.084           0.996       3.756e-02          0.9120
 474       9.104e-01       3.823e+00       3.598e-01          -0.015          -0.086           0.996       3.866e-02          0.8161
 475       7.724e-01       3.823e+00       3.567e-01          -0.047          -0.086           0.995       3.758e-02          0.7498
 476       6.404e-01       3.824e+00       3.497e-01          -0.077          -0.086           0.993       3.433e-02          0.7037
 477       5.221e-01       3.825e+00       3.396e-01          -0.115          -0.086           0.990       2.913e-02          0.6503
 478       4.243e-01       3.826e+00       3.271e-01          -0.171          -0.085           0.982       2.229e-02          0.5344
 479       3.527e-01       3.827e+00       3.137e-01          -0.252          -0.082           0.964       1.417e-02          0.3287
 480       3.115e-01       3.828e+00       3.016e-01          -0.516          -0.068           0.854       5.442e-03         -1.5007
Strip 38
 481       1.428e+00       4.106e+00       3.187e-01           0.391          -0.055           0.919       4.955e-03          0.7650
 482       1.404e+00       4.105e+00       3.276e-01           0.290          -0.066           0.955       1.402e-02          0.8860
 483       1.349e+00       4.104e+00       3.424e-01           0.201          -0.074           0.977       2.193e-02          0.9168
 484       1.265e+00       4.102e+00       3.579e-01           0.141          -0.078           0.987       2.859e-02          0.9357
 485       1.159e+00       4.101e+00       3.714e-01           0.089          -0.082           0.993       3.362e-02          0.9455
 486       1.035e+00       4.100e+00       3.806e-01           0.035          -0.084           0.996       3.674e-02          0.9076
 487       9.023e-01       4.100e+00       3.836e-01          -0.015          -0.086           0.996       3.782e-02          0.8109
 488       7.673e-01       4.100e+00       3.805e-01          -0.047          -0.086           0.995       3.676e-02          0.7437
 489       6.381e-01       4.101e+00       3.736e-01          -0.077          -0.086           0.993       3.359e-02          0.6966
 490       5.223e-01       4.102e+00       3.637e-01          -0.115          -0.086           0.990       2.850e-02          0.6417
 491       4.267e-01       4.103e+00       3.516e-01          -0.171          -0.085           0.982       2.181e-02          0.5232
 492       3.567e-01       4.104e+00       3.384e-01          -0.252          -0.082           0.964       1.386e-02          0.3115
 493       3.164e-01       4.105e+00       3.266e-01          -0.516          -0.068           0.854       5.324e-03         -1.5347
Strip 39
 494       1.409e+00       4.383e+00       3.439e-01           0.391          -0.055           0.919       4.845e-03          0.7641
 495       1.385e+00       4.382e+00       3.525e-01           0.290          -0.066           0.955       1.371e-02          0.8842
 496       1.330e+00       4.381e+00       3.671e-01           0.201          -0.074           0.977       2.145e-02          0.9140
 497       1.249e+00       4.379e+00       3.822e-01           0.141          -0.078           0.987       2.796e-02          0.9319
 498       1.145e+00       4.378e+00       3.954e-01           0.089          -0.082           0.993       3.287e-02          0.9407
 499       1.024e+00       4.377e+00       4.044e-01           0.035          -0.084           0.996       3.593e-02          0.9018
 500       8.941e-01       4.377e+00       4.073e-01          -0.015          -0.086           0.996       3.698e-02          0.8042
 501       7.621e-01       4.377e+00       4.043e-01          -0.047          -0.086           0.995       3.594e-02          0.7360
 502       6.358e-01       4.378e+00       3.976e-01          -0.077          -0.086           0.993       3.284e-02          0.6876
 503       5.226e-01       4.379e+00       3.879e-01          -0.115          -0.086           0.990       2.787e-02          0.6307
 504       4.291e-01       4.380e+00       3.760e-01          -0.171          -0.085           0.982       2.132e-02          0.5088
 505       3.606e-01       4.381e+00       3.632e-01          -0.252          -0.082           0.964       1.355e-02          0.2895
 506       3.212e-01       4.382e+00       3.516e-01          -0.516          -0.068           0.854       5.205e-03         -1.5783
Strip 40
 507       1.389e+00       4.660e+00       3.690e-01           0.391          -0.055           0.919       4.735e-03          0.7629
 508       1.365e+00       4.659e+00       3.775e-01           0.290          -0.066           0.955       1.339e-02          0.8818
 509       1.312e+00       4.658e+00       3.917e-01           0.201          -0.074           0.977       2.096e-02          0.9103
 510       1.233e+00       4.656e+00       4.065e-01           0.141          -0.078           0.987       2.732e-02          0.9269
 511       1.131e+00       4.655e+00       4.194e-01           0.089          -0.082           0.993       3.213e-02          0.9344
 512       1.013e+00       4.654e+00       4.281e-01           0.035          -0.084           0.996       3.511e-02          0.8943
 513       8.860e-01       4.654e+00       4.310e-01          -0.015          -0.086           0.996       3.614e-02          0.7954
 514       7.569e-01       4.654e+00       4.281e-01          -0.047          -0.086           0.995       3.513e-02          0.7259
 515       6.335e-01       4.655e+00       4.215e-01          -0.077          -0.086           0.993       3.209e-02          0.6758
 516       5.229e-01       4.656e+00       4.121e-01          -0.115          -0.086           0.990       2.723e-02          0.6164
 517       4.315e-01       4.657e+00       4.004e-01          -0.171          -0.085           0.982       2.084e-02          0.4902
 518       3.646e-01       4.658e+00       3.879e-01          -0.252          -0.082           0.964       1.324e-02          0.2611
 519       3.261e-01       4.659e+00       3.766e-01          -0.516          -0.068           0.854       5.087e-03         -1.6345
Strip 41
 520       1.369e+00       4.937e+00       3.942e-01           0.391          -0.055           0.919       4.625e-03          0.7612
 521       1.346e+00       4.936e+00       4.025e-01           0.290          -0.066           0.955       1.308e-02          0.8786
 522       1.294e+00       4.935e+00       4.163e-01           0.201          -0.074           0.977       2.047e-02          0.9052
 523       1.216e+00       4.933e+00       4.308e-01           0.141          -0.078           0.987       2.669e-02          0.9200
 524       1.117e+00       4.932e+00       4.434e-01           0.089          -0.082           0.993       3.138e-02          0.9258
 525       1.002e+00       4.931e+00       4.519e-01           0.035          -0.084           0.996       3.430e-02          0.8840
 526       8.778e-01       4.931e+00       4.547e-01          -0.015          -0.086           0.996       3.530e-02          0.7836
 527       7.518e-01       4.931e+00       4.519e-01          -0.047          -0.086           0.995       3.431e-02          0.7123
 528       6.312e-01       4.932e+00       4.455e-01          -0.077          -0.086           0.993       3.135e-02          0.6601
 529       5.232e-01       4.933e+00       4.362e-01          -0.115          -0.086           0.990       2.660e-02          0.5977
 530       4.339e-01       4.934e+00       4.249e-01          -0.171          -0.085           0.982       2.035e-02          0.4659
 531       3.686e-01       4.935e+00       4.126e-01          -0.252          -0.082           0.964       1.293e-02          0.2241
 532       3.310e-01       4.936e+00       4.016e-01          -0.516          -0.068           0.854       4.969e-03         -1.7079
Strip 42
 533       1.349e+00       5.214e+00       4.194e-01           0.391          -0.055           0.919       4.515e-03          0.7589
 534       1.327e+00       5.213e+00       4.274e-01           0.290          -0.066           0.955       1.277e-02          0.8739
 535       1.276e+00       5.212e+00       4.410e-01           0.201          -0.074           0.977       1.999e-02          0.8979
 536       1.200e+00       5.210e+00       4.551e-01           0.141          -0.078           0.987       2.605e-02          0.9101
 537       1.103e+00       5.209e+00       4.674e-01           0.089          -0.082           0.993       3.063e-02          0.9136
 538       9.909e-01       5.208e+00       4.757e-01           0.035          -0.084           0.996       3.348e-02          0.8695
 539       8.697e-01       5.208e+00       4.784e-01          -0.015          -0.086           0.996       3.446e-02          0.7670
 540       7.466e-01       5.208e+00       4.757e-01          -0.047          -0.086           0.995       3.349e-02          0.6937
 541       6.290e-01       5.209e+00       4.694e-01          -0.077          -0.086           0.993       3.060e-02          0.6389
 542       5.235e-01       5.210e+00       4.604e-01          -0.115          -0.086           0.990       2.597e-02          0.5726
 543       4.363e-01       5.211e+00       4.493e-01          -0.171          -0.085           0.982       1.987e-02          0.4337
 544       3.725e-01       5.212e+00       4.373e-01          -0.252          -0.082           0.964       1.263e-02          0.1754
 545       3.358e-01       5.213e+00       4.265e-01          -0.516          -0.068           0.854       4.851e-03         -1.8043
Strip 43
 546       1.329e+00       5.491e+00       4.445e-01           0.391          -0.055           0.919       4.405e-03          0.7553
 547       1.307e+00       5.490e+00       4.524e-01           0.290          -0.066           0.955       1.246e-02          0.8667
 548       1.258e+00       5.489e+00       4.656e-01           0.201          -0.074           0.977       1.950e-02          0.8867
 549       1.184e+00       5.487e+00       4.794e-01           0.141          -0.078           0.987       2.542e-02          0.8951
 550       1.089e+00       5.486e+00       4.913e-01           0.089          -0.082           0.993       2.989e-02          0.8950
 551       9.798e-01       5.486e+00       4.995e-01           0.035          -0.084           0.996       3.266e-02          0.8479
 552       8.615e-01       5.485e+00       5.022e-01          -0.015          -0.086           0.996       3.362e-02          0.7429
 553       7.415e-01       5.486e+00       4.995e-01          -0.047          -0.086           0.995       3.268e-02          0.6672
 554       6.267e-01       5.486e+00       4.933e-01          -0.077          -0.086           0.993       2.986e-02          0.6094
 555       5.238e-01       5.487e+00       4.846e-01          -0.115          -0.086           0.990       2.533e-02          0.5384
 556       4.387e-01       5.488e+00       4.737e-01          -0.171          -0.085           0.982       1.938e-02          0.3904
 557       3.765e-01       5.489e+00       4.621e-01          -0.252          -0.082           0.964       1.232e-02          0.1106
 558       3.407e-01       5.490e+00       4.515e-01          -0.516          -0.068           0.854       4.732e-03         -1.9320
Strip 44
 559       1.309e+00       5.767e+00       4.697e-01           0.391          -0.055           0.919       4.295e-03          0.7491
 560       1.288e+00       5.767e+00       4.774e-01           0.290          -0.066           0.955       1.215e-02          0.8544
 561       1.240e+00       5.766e+00       4.903e-01           0.201          -0.074           0.977       1.901e-02          0.8676
 562       1.168e+00       5.764e+00       5.037e-01           0.141          -0.078           0.987       2.478e-02          0.8696
 563       1.076e+00       5.763e+00       5.153e-01           0.089          -0.082           0.993       2.914e-02          0.8640
 564       9.686e-01       5.763e+00       5.233e-01           0.035          -0.084           0.996       3.185e-02          0.8128
 565       8.533e-01       5.762e+00       5.259e-01          -0.015          -0.086           0.996       3.278e-02          0.7050
 566       7.363e-01       5.763e+00       5.233e-01          -0.047          -0.086           0.995       3.186e-02          0.6272
 567       6.244e-01       5.763e+00       5.173e-01          -0.077          -0.086           0.993       2.911e-02          0.5669
 568       5.240e-01       5.764e+00       5.087e-01          -0.115          -0.086           0.990       2.470e-02          0.4909
 569       4.411e-01       5.765e+00       4.982e-01          -0.171          -0.085           0.982       1.890e-02          0.3321
 570       3.804e-01       5.766e+00       4.868e-01          -0.252          -0.082           0.964       1.201e-02          0.0247
 571       3.455e-01       5.767e+00       4.765e-01          -0.516          -0.068           0.854       4.614e-03         -2.1008
Strip 45
 572       1.289e+00       6.044e+00       4.949e-01           0.391          -0.055           0.919       4.185e-03          0.7366
 573       1.269e+00       6.044e+00       5.023e-01           0.290          -0.066           0.955       1.184e-02          0.8295
 574       1.222e+00       6.043e+00       5.149e-01           0.201          -0.074           0.977       1.852e-02          0.8289
 575       1.152e+00       6.041e+00       5.279e-01           0.141          -0.078           0.987       2.415e-02          0.8186
 576       1.062e+00       6.040e+00       5.393e-01           0.089          -0.082           0.993       2.839e-02          0.8036
 577       9.575e-01       6.040e+00       5.471e-01           0.035          -0.084           0.996       3.103e-02          0.7470
 578       8.452e-01       6.039e+00       5.496e-01          -0.015          -0.086           0.996       3.194e-02          0.6380
 579       7.312e-01       6.040e+00       5.471e-01          -0.047          -0.086           0.995       3.104e-02          0.5615
 580       6.221e-01       6.040e+00       5.412e-01          -0.077          -0.086           0.993       2.836e-02          0.5026
 581       5.243e-01       6.041e+00       5.329e-01          -0.115          -0.086           0.990       2.407e-02          0.4246
 582       4.435e-01       6.042e+00       5.226e-01          -0.171          -0.085           0.982       1.841e-02          0.2551
 583       3.844e-01       6.043e+00       5.115e-01          -0.252          -0.082           0.964       1.170e-02         -0.0852
 584       3.504e-01       6.044e+00       5.015e-01          -0.516          -0.068           0.854       4.496e-03         -2.3146
Strip 46
 585       1.270e+00       6.321e+00       5.200e-01           0.391          -0.055           0.919       4.075e-03          0.7007
 586       1.250e+00       6.321e+00       5.273e-01           0.290          -0.066           0.955       1.153e-02          0.7577
 587       1.204e+00       6.320e+00       5.395e-01           0.201          -0.074           0.977       1.804e-02          0.7199
 588       1.135e+00       6.318e+00       5.522e-01           0.141          -0.078           0.987       2.351e-02          0.6812
 589       1.048e+00       6.317e+00       5.633e-01           0.089          -0.082           0.993       2.765e-02          0.6504
 590       9.464e-01       6.317e+00       5.709e-01           0.035          -0.084           0.996       3.021e-02          0.5915
 591       8.370e-01       6.316e+00       5.733e-01          -0.015          -0.086           0.996       3.110e-02          0.4917
 592       7.260e-01       6.317e+00       5.708e-01          -0.047          -0.086           0.995       3.023e-02          0.4316
 593       6.198e-01       6.317e+00       5.652e-01          -0.077          -0.086           0.993       2.762e-02          0.3926
 594       5.246e-01       6.318e+00       5.570e-01          -0.115          -0.086           0.990       2.343e-02          0.3325
 595       4.459e-01       6.319e+00       5.470e-01          -0.171          -0.085           0.982       1.793e-02          0.1693
 596       3.884e-01       6.320e+00       5.362e-01          -0.252          -0.082           0.964       1.139e-02         -0.1922
 597       3.553e-01       6.321e+00       5.265e-01          -0.516          -0.068           0.854       4.377e-03         -2.5142










